<?xml version="1.0" encoding="UTF-8"?>

<!-- generated on 10/23/24 16:06:15 by Eclipse SUMO netconvert Version 1.8.0
<configuration xmlns:xsi="http://www.w3.org/2001/XMLSchema-instance" xsi:noNamespaceSchemaLocation="http://sumo.dlr.de/xsd/netconvertConfiguration.xsd">

    <input>
        <osm-files value="getulio.osm"/>
    </input>

    <output>
        <output-file value="getulio.net.xml"/>
    </output>

    <projection>
        <proj.utm value="true"/>
    </projection>

    <processing>
        <geometry.remove value="true"/>
        <roundabouts.guess value="true"/>
    </processing>

    <tls_building>
        <tls.discard-simple value="true"/>
        <tls.join value="true"/>
        <tls.guess-signals value="true"/>
    </tls_building>

    <ramp_guessing>
        <ramps.guess value="true"/>
    </ramp_guessing>

    <junctions>
        <junctions.join value="true"/>
    </junctions>

    <report>
        <aggregate-warnings value="5"/>
    </report>

</configuration>
-->

<net version="1.6" junctionCornerDetail="5" limitTurnSpeed="5.50" xmlns:xsi="http://www.w3.org/2001/XMLSchema-instance" xsi:noNamespaceSchemaLocation="http://sumo.dlr.de/xsd/net_file.xsd">

    <location netOffset="-784827.98,2094926.97" convBoundary="0.00,0.00,1606.53,2421.47" origBoundary="-48.295780,-18.926845,-48.280665,-18.905012" projParameter="+proj=utm +zone=22 +ellps=WGS84 +datum=WGS84 +units=m +no_defs"/>

    <type id="highway.bridleway" priority="1" numLanes="1" speed="2.78" allow="pedestrian" oneway="1" width="2.00"/>
    <type id="highway.bus_guideway" priority="1" numLanes="1" speed="27.78" allow="bus" oneway="1"/>
    <type id="highway.cycleway" priority="1" numLanes="1" speed="8.33" allow="bicycle" oneway="0" width="1.00"/>
    <type id="highway.footway" priority="1" numLanes="1" speed="2.78" allow="pedestrian" oneway="1" width="2.00"/>
    <type id="highway.ford" priority="1" numLanes="1" speed="2.78" allow="army" oneway="0"/>
    <type id="highway.living_street" priority="2" numLanes="1" speed="2.78" disallow="tram rail_urban rail rail_electric rail_fast ship" oneway="0"/>
    <type id="highway.motorway" priority="14" numLanes="2" speed="39.44" allow="private emergency authority army vip passenger hov taxi bus coach delivery truck trailer motorcycle evehicle custom1 custom2" oneway="1"/>
    <type id="highway.motorway_link" priority="9" numLanes="1" speed="22.22" allow="private emergency authority army vip passenger hov taxi bus coach delivery truck trailer motorcycle evehicle custom1 custom2" oneway="1"/>
    <type id="highway.path" priority="1" numLanes="1" speed="2.78" allow="pedestrian bicycle" oneway="0" width="2.00"/>
    <type id="highway.pedestrian" priority="1" numLanes="1" speed="2.78" allow="pedestrian" oneway="1" width="2.00"/>
    <type id="highway.primary" priority="12" numLanes="2" speed="27.78" disallow="tram rail_urban rail rail_electric rail_fast ship" oneway="0"/>
    <type id="highway.primary_link" priority="7" numLanes="1" speed="22.22" disallow="tram rail_urban rail rail_electric rail_fast ship" oneway="0"/>
    <type id="highway.raceway" priority="15" numLanes="2" speed="83.33" allow="vip" oneway="0"/>
    <type id="highway.residential" priority="3" numLanes="1" speed="13.89" disallow="tram rail_urban rail rail_electric rail_fast ship" oneway="0"/>
    <type id="highway.secondary" priority="11" numLanes="1" speed="27.78" disallow="tram rail_urban rail rail_electric rail_fast ship" oneway="0"/>
    <type id="highway.secondary_link" priority="6" numLanes="1" speed="22.22" disallow="tram rail_urban rail rail_electric rail_fast ship" oneway="0"/>
    <type id="highway.service" priority="1" numLanes="1" speed="5.56" allow="pedestrian delivery bicycle" oneway="0"/>
    <type id="highway.stairs" priority="1" numLanes="1" speed="1.39" allow="pedestrian" oneway="1" width="2.00"/>
    <type id="highway.step" priority="1" numLanes="1" speed="1.39" allow="pedestrian" oneway="1" width="2.00"/>
    <type id="highway.steps" priority="1" numLanes="1" speed="1.39" allow="pedestrian" oneway="1" width="2.00"/>
    <type id="highway.tertiary" priority="10" numLanes="1" speed="22.22" disallow="tram rail_urban rail rail_electric rail_fast ship" oneway="0"/>
    <type id="highway.tertiary_link" priority="5" numLanes="1" speed="22.22" disallow="tram rail_urban rail rail_electric rail_fast ship" oneway="0"/>
    <type id="highway.track" priority="1" numLanes="1" speed="5.56" allow="pedestrian motorcycle moped bicycle" oneway="0"/>
    <type id="highway.trunk" priority="13" numLanes="2" speed="27.78" disallow="pedestrian bicycle tram rail_urban rail rail_electric rail_fast ship" oneway="0"/>
    <type id="highway.trunk_link" priority="8" numLanes="1" speed="22.22" disallow="pedestrian bicycle tram rail_urban rail rail_electric rail_fast ship" oneway="0"/>
    <type id="highway.unclassified" priority="4" numLanes="1" speed="13.89" disallow="tram rail_urban rail rail_electric rail_fast ship" oneway="0"/>
    <type id="highway.unsurfaced" priority="1" numLanes="1" speed="8.33" disallow="tram rail_urban rail rail_electric rail_fast ship" oneway="0"/>
    <type id="railway.highspeed" priority="21" numLanes="1" speed="69.44" allow="rail_fast" oneway="1"/>
    <type id="railway.light_rail" priority="19" numLanes="1" speed="27.78" allow="rail_urban" oneway="1"/>
    <type id="railway.preserved" priority="16" numLanes="1" speed="27.78" allow="rail" oneway="1"/>
    <type id="railway.rail" priority="20" numLanes="1" speed="44.44" allow="rail" oneway="1"/>
    <type id="railway.subway" priority="18" numLanes="1" speed="27.78" allow="rail_urban" oneway="1"/>
    <type id="railway.tram" priority="17" numLanes="1" speed="13.89" allow="tram" oneway="1"/>

    <edge id=":160744174#9-AddedOnRampNode_0" function="internal">
        <lane id=":160744174#9-AddedOnRampNode_0_0" index="0" disallow="tram rail_urban rail rail_electric rail_fast ship" speed="27.78" length="8.00" shape="802.77,545.88 796.24,541.26"/>
    </edge>
    <edge id=":1727920314_0" function="internal">
        <lane id=":1727920314_0_0" index="0" disallow="tram rail_urban rail rail_electric rail_fast ship" speed="6.55" length="9.00" shape="1235.17,447.85 1232.75,448.22 1231.00,449.28 1229.94,451.02 1229.56,453.46"/>
    </edge>
    <edge id=":1727920314_1" function="internal">
        <lane id=":1727920314_1_0" index="0" disallow="tram rail_urban rail rail_electric rail_fast ship" speed="13.89" length="11.10" shape="1235.17,447.85 1224.07,447.98"/>
    </edge>
    <edge id=":1727920314_2" function="internal">
        <lane id=":1727920314_2_0" index="0" disallow="tram rail_urban rail rail_electric rail_fast ship" speed="13.89" length="11.10" shape="1229.67,442.36 1229.56,453.46"/>
    </edge>
    <edge id=":1727920314_3" function="internal">
        <lane id=":1727920314_3_0" index="0" disallow="tram rail_urban rail rail_electric rail_fast ship" speed="6.55" length="4.26" shape="1229.67,442.36 1229.31,444.78 1228.37,446.33"/>
    </edge>
    <edge id=":1727920314_4" function="internal">
        <lane id=":1727920314_4_0" index="0" disallow="tram rail_urban rail rail_electric rail_fast ship" speed="6.55" length="4.74" shape="1228.37,446.33 1228.25,446.53 1226.51,447.59 1224.07,447.98"/>
    </edge>
    <edge id=":1727920990_0" function="internal">
        <lane id=":1727920990_0_0" index="0" disallow="tram rail_urban rail rail_electric rail_fast ship" speed="27.78" length="11.13" shape="609.52,453.77 599.52,448.88"/>
    </edge>
    <edge id=":1727920990_1" function="internal">
        <lane id=":1727920990_1_0" index="0" disallow="tram rail_urban rail rail_electric rail_fast ship" speed="5.93" length="9.28" shape="606.20,445.78 605.60,448.20 604.29,449.53 602.26,449.75 599.52,448.88"/>
    </edge>
    <edge id=":1727920996_0" function="internal">
        <lane id=":1727920996_0_0" index="0" disallow="tram rail_urban rail rail_electric rail_fast ship" speed="6.61" length="8.81" shape="1113.68,454.93 1113.29,452.59 1112.24,450.87 1110.54,449.78 1108.18,449.33"/>
    </edge>
    <edge id=":1727920996_1" function="internal">
        <lane id=":1727920996_1_0" index="0" disallow="tram rail_urban rail rail_electric rail_fast ship" speed="22.22" length="10.70" shape="1113.68,454.93 1113.58,444.23"/>
    </edge>
    <edge id=":1727920996_2" function="internal">
        <lane id=":1727920996_2_0" index="0" disallow="tram rail_urban rail rail_electric rail_fast ship" speed="13.89" length="10.71" shape="1118.89,449.53 1108.18,449.33"/>
    </edge>
    <edge id=":1727920996_3" function="internal">
        <lane id=":1727920996_3_0" index="0" disallow="tram rail_urban rail rail_electric rail_fast ship" speed="6.33" length="8.60" shape="1118.89,449.53 1116.56,449.23 1114.89,448.25 1113.90,446.58 1113.58,444.23"/>
    </edge>
    <edge id=":1727921156_0" function="internal">
        <lane id=":1727921156_0_0" index="0" disallow="tram rail_urban rail rail_electric rail_fast ship" speed="6.21" length="9.05" shape="630.58,464.25 628.15,463.55 626.18,463.86 624.68,465.17 623.66,467.49"/>
    </edge>
    <edge id=":1727921156_1" function="internal">
        <lane id=":1727921156_1_0" index="0" disallow="tram rail_urban rail rail_electric rail_fast ship" speed="27.78" length="14.41" shape="630.58,464.25 617.61,457.98"/>
    </edge>
    <edge id=":1727921156_2" function="internal">
        <lane id=":1727921156_2_0" index="0" disallow="tram rail_urban rail rail_electric rail_fast ship" speed="7.37" length="9.99" shape="620.57,466.62 621.04,463.76 620.70,461.36 619.56,459.44 617.61,457.98"/>
    </edge>
    <edge id=":1727921156_3" function="internal">
        <lane id=":1727921156_3_0" index="0" disallow="tram rail_urban rail rail_electric rail_fast ship" speed="3.65" length="4.67" shape="620.57,466.62 621.67,465.68 622.55,465.51 623.21,466.12 623.66,467.49"/>
    </edge>
    <edge id=":1733575399_0" function="internal">
        <lane id=":1733575399_0_0" index="0" disallow="tram rail_urban rail rail_electric rail_fast ship" speed="6.45" length="9.03" shape="1055.01,923.04 1057.47,923.39 1059.43,922.86 1060.90,921.45 1061.86,919.16"/>
    </edge>
    <edge id=":1733575399_1" function="internal">
        <lane id=":1733575399_1_0" index="0" disallow="tram rail_urban rail rail_electric rail_fast ship" speed="11.11" length="11.26" shape="1055.01,923.04 1065.82,926.19"/>
    </edge>
    <edge id=":1733575399_2" function="internal">
        <lane id=":1733575399_2_0" index="0" disallow="tram rail_urban rail rail_electric rail_fast ship" speed="13.89" length="11.26" shape="1058.91,930.03 1061.86,919.16"/>
    </edge>
    <edge id=":1733575399_3" function="internal">
        <lane id=":1733575399_3_0" index="0" disallow="tram rail_urban rail rail_electric rail_fast ship" speed="6.48" length="9.03" shape="1058.91,930.03 1059.91,927.76 1061.40,926.37 1063.37,925.84 1065.82,926.19"/>
    </edge>
    <edge id=":1733575403_0" function="internal">
        <lane id=":1733575403_0_0" index="0" disallow="tram rail_urban rail rail_electric rail_fast ship" speed="6.50" length="9.04" shape="944.73,885.06 944.36,887.51 944.88,889.49 946.26,890.99 948.51,892.01"/>
    </edge>
    <edge id=":1733575403_1" function="internal">
        <lane id=":1733575403_1_0" index="0" disallow="tram rail_urban rail rail_electric rail_fast ship" speed="13.89" length="11.22" shape="944.73,885.06 941.56,895.82"/>
    </edge>
    <edge id=":1733575403_2" function="internal">
        <lane id=":1733575403_2_0" index="0" disallow="tram rail_urban rail rail_electric rail_fast ship" speed="11.11" length="11.23" shape="937.76,888.78 948.51,892.01"/>
    </edge>
    <edge id=":1733575403_3" function="internal">
        <lane id=":1733575403_3_0" index="0" disallow="tram rail_urban rail rail_electric rail_fast ship" speed="6.56" length="9.09" shape="937.76,888.78 940.01,889.85 941.40,891.37 941.91,893.36 941.56,895.82"/>
    </edge>
    <edge id=":1733575411_0" function="internal">
        <lane id=":1733575411_0_0" index="0" disallow="tram rail_urban rail rail_electric rail_fast ship" speed="6.47" length="9.03" shape="714.50,819.05 714.17,821.51 714.72,823.48 716.13,824.94 718.42,825.90"/>
    </edge>
    <edge id=":1733575411_1" function="internal">
        <lane id=":1733575411_1_0" index="0" disallow="tram rail_urban rail rail_electric rail_fast ship" speed="13.89" length="11.23" shape="714.50,819.05 711.40,829.84"/>
    </edge>
    <edge id=":1733575411_2" function="internal">
        <lane id=":1733575411_2_0" index="0" disallow="tram rail_urban rail rail_electric rail_fast ship" speed="11.11" length="11.24" shape="707.59,822.89 718.42,825.90"/>
    </edge>
    <edge id=":1733575411_3" function="internal">
        <lane id=":1733575411_3_0" index="0" disallow="tram rail_urban rail rail_electric rail_fast ship" speed="6.51" length="9.05" shape="707.59,822.89 709.85,823.92 711.24,825.42 711.75,827.40 711.40,829.84"/>
    </edge>
    <edge id=":1733575415_0" function="internal">
        <lane id=":1733575415_0_0" index="0" disallow="tram rail_urban rail rail_electric rail_fast ship" speed="3.65" length="4.67" shape="435.93,744.98 435.00,743.88 434.83,743.00 435.44,742.34 436.81,741.91"/>
    </edge>
    <edge id=":1733575416_0" function="internal">
        <lane id=":1733575416_0_0" index="0" disallow="tram rail_urban rail rail_electric rail_fast ship" speed="6.50" length="9.03" shape="747.77,721.10 745.32,720.77 743.35,721.30 741.87,722.70 740.87,724.97"/>
    </edge>
    <edge id=":1733575416_1" function="internal">
        <lane id=":1733575416_1_0" index="0" disallow="tram rail_urban rail rail_electric rail_fast ship" speed="13.89" length="11.26" shape="747.77,721.10 736.96,717.97"/>
    </edge>
    <edge id=":1733575416_2" function="internal">
        <lane id=":1733575416_2_0" index="0" disallow="tram rail_urban rail rail_electric rail_fast ship" speed="3.65" length="2.34" shape="747.77,721.10 746.84,720.01 746.67,719.13"/>
    </edge>
    <edge id=":1733575416_9" function="internal">
        <lane id=":1733575416_9_0" index="0" disallow="tram rail_urban rail rail_electric rail_fast ship" speed="3.65" length="2.34" shape="746.67,719.13 747.28,718.47 748.65,718.03"/>
    </edge>
    <edge id=":1733575416_3" function="internal">
        <lane id=":1733575416_3_0" index="0" disallow="tram rail_urban rail rail_electric rail_fast ship" speed="6.52" length="9.06" shape="744.78,711.09 744.45,713.54 744.98,715.52 746.38,717.02 748.65,718.03"/>
    </edge>
    <edge id=":1733575416_4" function="internal">
        <lane id=":1733575416_4_0" index="0" disallow="tram rail_urban rail rail_electric rail_fast ship" speed="13.89" length="14.42" shape="744.78,711.09 740.87,724.97"/>
    </edge>
    <edge id=":1733575416_5" function="internal">
        <lane id=":1733575416_5_0" index="0" disallow="tram rail_urban rail rail_electric rail_fast ship" speed="7.31" length="11.74" shape="744.78,711.09 743.39,714.70 741.62,717.05 739.48,718.14 736.96,717.97"/>
    </edge>
    <edge id=":1733575416_6" function="internal">
        <lane id=":1733575416_6_0" index="0" disallow="tram rail_urban rail rail_electric rail_fast ship" speed="13.89" length="11.23" shape="737.86,714.90 748.65,718.03"/>
    </edge>
    <edge id=":1733575416_7" function="internal">
        <lane id=":1733575416_7_0" index="0" disallow="tram rail_urban rail rail_electric rail_fast ship" speed="7.37" length="4.04" shape="737.86,714.90 740.07,716.13 740.84,717.43"/>
    </edge>
    <edge id=":1733575416_8" function="internal">
        <lane id=":1733575416_8_0" index="0" disallow="tram rail_urban rail rail_electric rail_fast ship" speed="3.65" length="2.34" shape="737.86,714.90 738.79,716.01 738.95,716.89"/>
    </edge>
    <edge id=":1733575416_10" function="internal">
        <lane id=":1733575416_10_0" index="0" disallow="tram rail_urban rail rail_electric rail_fast ship" speed="7.37" length="7.74" shape="740.84,717.43 741.30,718.21 741.57,721.16 740.87,724.97"/>
    </edge>
    <edge id=":1733575416_11" function="internal">
        <lane id=":1733575416_11_0" index="0" disallow="tram rail_urban rail rail_electric rail_fast ship" speed="3.65" length="2.34" shape="738.95,716.89 738.34,717.54 736.96,717.97"/>
    </edge>
    <edge id=":1733575418_0" function="internal">
        <lane id=":1733575418_0_0" index="0" disallow="tram rail_urban rail rail_electric rail_fast ship" speed="9.22" length="13.59" shape="672.52,699.01 669.01,698.45 665.82,698.91 662.95,700.40 660.41,702.91"/>
    </edge>
    <edge id=":1733575418_1" function="internal">
        <lane id=":1733575418_1_0" index="0" disallow="tram rail_urban rail rail_electric rail_fast ship" speed="13.89" length="17.51" shape="672.52,699.01 655.69,694.18"/>
    </edge>
    <edge id=":1733575418_2" function="internal">
        <lane id=":1733575418_2_0" index="0" disallow="tram rail_urban rail rail_electric rail_fast ship" speed="7.49" length="15.92" shape="672.52,699.01 668.29,697.10 666.25,694.48 666.40,691.17 668.75,687.17"/>
    </edge>
    <edge id=":1733575418_3" function="internal">
        <lane id=":1733575418_3_0" index="0" disallow="tram rail_urban rail rail_electric rail_fast ship" speed="3.65" length="4.67" shape="672.52,699.01 671.60,697.91 671.44,697.03 672.05,696.37 673.42,695.94"/>
    </edge>
    <edge id=":1733575418_4" function="internal">
        <lane id=":1733575418_4_0" index="0" disallow="tram rail_urban rail rail_electric rail_fast ship" speed="5.84" length="9.13" shape="671.26,689.15 669.92,691.45 669.83,693.35 671.00,694.84 673.42,695.94"/>
    </edge>
    <edge id=":1733575418_5" function="internal">
        <lane id=":1733575418_5_0" index="0" disallow="tram rail_urban rail rail_electric rail_fast ship" speed="22.22" length="17.53" shape="671.26,689.15 660.41,702.91"/>
    </edge>
    <edge id=":1733575418_6" function="internal">
        <lane id=":1733575418_6_0" index="0" disallow="tram rail_urban rail rail_electric rail_fast ship" speed="10.46" length="7.05" shape="671.26,689.15 668.01,692.35 665.80,693.49"/>
    </edge>
    <edge id=":1733575418_7" function="internal">
        <lane id=":1733575418_7_0" index="0" disallow="tram rail_urban rail rail_electric rail_fast ship" speed="3.65" length="2.34" shape="671.26,689.15 669.89,689.59 669.02,689.41"/>
    </edge>
    <edge id=":1733575418_16" function="internal">
        <lane id=":1733575418_16_0" index="0" disallow="tram rail_urban rail rail_electric rail_fast ship" speed="10.46" length="10.39" shape="665.80,693.49 664.33,694.25 660.22,694.86 655.69,694.18"/>
    </edge>
    <edge id=":1733575418_17" function="internal">
        <lane id=":1733575418_17_0" index="0" disallow="tram rail_urban rail rail_electric rail_fast ship" speed="3.65" length="2.34" shape="669.02,689.41 668.64,688.60 668.75,687.17"/>
    </edge>
    <edge id=":1733575418_8" function="internal">
        <lane id=":1733575418_8_0" index="0" disallow="tram rail_urban rail rail_electric rail_fast ship" speed="9.31" length="13.66" shape="656.55,691.10 660.11,691.63 663.32,691.16 666.21,689.67 668.75,687.17"/>
    </edge>
    <edge id=":1733575418_9" function="internal">
        <lane id=":1733575418_9_0" index="0" disallow="tram rail_urban rail rail_electric rail_fast ship" speed="13.89" length="17.55" shape="656.55,691.10 673.42,695.94"/>
    </edge>
    <edge id=":1733575418_10" function="internal">
        <lane id=":1733575418_10_0" index="0" disallow="tram rail_urban rail rail_electric rail_fast ship" speed="7.49" length="15.98" shape="656.55,691.10 660.83,692.97 662.90,695.56 662.76,698.88 660.41,702.91"/>
    </edge>
    <edge id=":1733575418_11" function="internal">
        <lane id=":1733575418_11_0" index="0" disallow="tram rail_urban rail rail_electric rail_fast ship" speed="3.65" length="4.67" shape="656.55,691.10 657.49,692.19 657.66,693.07 657.06,693.73 655.69,694.18"/>
    </edge>
    <edge id=":1733575418_12" function="internal">
        <lane id=":1733575418_12_0" index="0" disallow="tram rail_urban rail rail_electric rail_fast ship" speed="5.82" length="9.13" shape="657.89,700.93 659.24,698.63 659.32,696.73 658.14,695.25 655.69,694.18"/>
    </edge>
    <edge id=":1733575418_13" function="internal">
        <lane id=":1733575418_13_0" index="0" disallow="tram rail_urban rail rail_electric rail_fast ship" speed="22.22" length="17.54" shape="657.89,700.93 668.75,687.17"/>
    </edge>
    <edge id=":1733575418_14" function="internal">
        <lane id=":1733575418_14_0" index="0" disallow="tram rail_urban rail rail_electric rail_fast ship" speed="10.37" length="7.10" shape="657.89,700.93 661.15,697.71 663.38,696.55"/>
    </edge>
    <edge id=":1733575418_15" function="internal">
        <lane id=":1733575418_15_0" index="0" disallow="tram rail_urban rail rail_electric rail_fast ship" speed="3.65" length="2.34" shape="657.89,700.93 659.26,700.48 660.14,700.66"/>
    </edge>
    <edge id=":1733575418_18" function="internal">
        <lane id=":1733575418_18_0" index="0" disallow="tram rail_urban rail rail_electric rail_fast ship" speed="10.37" length="10.32" shape="663.38,696.55 664.83,695.81 668.92,695.22 673.42,695.94"/>
    </edge>
    <edge id=":1733575418_19" function="internal">
        <lane id=":1733575418_19_0" index="0" disallow="tram rail_urban rail rail_electric rail_fast ship" speed="3.65" length="2.34" shape="660.14,700.66 660.52,701.47 660.41,702.91"/>
    </edge>
    <edge id=":2042693658_0" function="internal">
        <lane id=":2042693658_0_0" index="0" disallow="tram rail_urban rail rail_electric rail_fast ship" speed="6.53" length="8.94" shape="822.11,853.20 824.55,853.49 826.51,852.95 827.99,851.57 828.99,849.35"/>
    </edge>
    <edge id=":2042693658_1" function="internal">
        <lane id=":2042693658_1_0" index="0" disallow="tram rail_urban rail rail_electric rail_fast ship" speed="11.11" length="11.09" shape="822.11,853.20 832.77,856.26"/>
    </edge>
    <edge id=":2042693658_2" function="internal">
        <lane id=":2042693658_2_0" index="0" disallow="tram rail_urban rail rail_electric rail_fast ship" speed="13.89" length="11.02" shape="825.95,859.95 828.99,849.35"/>
    </edge>
    <edge id=":2042693658_3" function="internal">
        <lane id=":2042693658_3_0" index="0" disallow="tram rail_urban rail rail_electric rail_fast ship" speed="6.41" length="8.89" shape="825.95,859.95 826.95,857.72 828.42,856.36 830.36,855.87 832.77,856.26"/>
    </edge>
    <edge id=":2042693795_0" function="internal">
        <lane id=":2042693795_0_0" index="0" disallow="tram rail_urban rail rail_electric rail_fast ship" speed="6.51" length="9.03" shape="978.68,789.94 976.23,789.58 974.26,790.10 972.76,791.48 971.73,793.73"/>
    </edge>
    <edge id=":2042693795_1" function="internal">
        <lane id=":2042693795_1_0" index="0" disallow="tram rail_urban rail rail_electric rail_fast ship" speed="13.89" length="11.33" shape="978.68,789.94 967.84,786.66"/>
    </edge>
    <edge id=":2042693795_2" function="internal">
        <lane id=":2042693795_2_0" index="0" disallow="tram rail_urban rail rail_electric rail_fast ship" speed="3.65" length="2.34" shape="978.68,789.94 977.76,788.84 977.60,787.95"/>
    </edge>
    <edge id=":2042693795_9" function="internal">
        <lane id=":2042693795_9_0" index="0" disallow="tram rail_urban rail rail_electric rail_fast ship" speed="3.65" length="2.34" shape="977.60,787.95 978.21,787.30 979.59,786.87"/>
    </edge>
    <edge id=":2042693795_3" function="internal">
        <lane id=":2042693795_3_0" index="0" disallow="tram rail_urban rail rail_electric rail_fast ship" speed="6.59" length="9.15" shape="975.68,779.83 975.37,782.31 975.91,784.32 977.32,785.84 979.59,786.87"/>
    </edge>
    <edge id=":2042693795_4" function="internal">
        <lane id=":2042693795_4_0" index="0" disallow="tram rail_urban rail rail_electric rail_fast ship" speed="13.89" length="14.45" shape="975.68,779.83 971.73,793.73"/>
    </edge>
    <edge id=":2042693795_5" function="internal">
        <lane id=":2042693795_5_0" index="0" disallow="tram rail_urban rail rail_electric rail_fast ship" speed="7.26" length="11.78" shape="975.68,779.83 974.31,783.46 972.55,785.81 970.39,786.87 967.84,786.66"/>
    </edge>
    <edge id=":2042693795_6" function="internal">
        <lane id=":2042693795_6_0" index="0" disallow="tram rail_urban rail rail_electric rail_fast ship" speed="13.89" length="11.28" shape="968.79,783.60 979.59,786.87"/>
    </edge>
    <edge id=":2042693795_7" function="internal">
        <lane id=":2042693795_7_0" index="0" disallow="tram rail_urban rail rail_electric rail_fast ship" speed="7.39" length="4.07" shape="968.79,783.60 971.01,784.87 971.77,786.18"/>
    </edge>
    <edge id=":2042693795_8" function="internal">
        <lane id=":2042693795_8_0" index="0" disallow="tram rail_urban rail rail_electric rail_fast ship" speed="3.65" length="2.34" shape="968.79,783.60 969.70,784.72 969.84,785.61"/>
    </edge>
    <edge id=":2042693795_10" function="internal">
        <lane id=":2042693795_10_0" index="0" disallow="tram rail_urban rail rail_electric rail_fast ship" speed="7.39" length="7.76" shape="971.77,786.18 972.24,786.98 972.48,789.93 971.73,793.73"/>
    </edge>
    <edge id=":2042693795_11" function="internal">
        <lane id=":2042693795_11_0" index="0" disallow="tram rail_urban rail rail_electric rail_fast ship" speed="3.65" length="2.34" shape="969.84,785.61 969.22,786.25 967.84,786.66"/>
    </edge>
    <edge id=":2042693844_0" function="internal">
        <lane id=":2042693844_0_0" index="0" disallow="tram rail_urban rail rail_electric rail_fast ship" speed="13.89" length="11.24" shape="862.23,753.86 851.46,750.65"/>
    </edge>
    <edge id=":2042693844_1" function="internal">
        <lane id=":2042693844_1_0" index="0" disallow="tram rail_urban rail rail_electric rail_fast ship" speed="7.37" length="11.78" shape="862.23,753.86 860.03,752.60 858.81,750.50 858.58,747.56 859.34,743.77"/>
    </edge>
    <edge id=":2042693844_2" function="internal">
        <lane id=":2042693844_2_0" index="0" disallow="tram rail_urban rail rail_electric rail_fast ship" speed="3.65" length="4.67" shape="862.23,753.86 861.32,752.74 861.18,751.86 861.80,751.21 863.18,750.81"/>
    </edge>
    <edge id=":2042693844_3" function="internal">
        <lane id=":2042693844_3_0" index="0" disallow="tram rail_urban rail rail_electric rail_fast ship" speed="6.54" length="9.07" shape="852.34,747.58 854.81,747.92 856.79,747.40 858.31,746.01 859.34,743.77"/>
    </edge>
    <edge id=":2042693844_4" function="internal">
        <lane id=":2042693844_4_0" index="0" disallow="tram rail_urban rail rail_electric rail_fast ship" speed="13.89" length="11.31" shape="852.34,747.58 863.18,750.81"/>
    </edge>
    <edge id=":2042693844_5" function="internal">
        <lane id=":2042693844_5_0" index="0" disallow="tram rail_urban rail rail_electric rail_fast ship" speed="3.65" length="4.67" shape="852.34,747.58 853.27,748.68 853.44,749.55 852.84,750.21 851.46,750.65"/>
    </edge>
    <edge id=":2042693844_6" function="internal">
        <lane id=":2042693844_6_0" index="0" disallow="tram rail_urban rail rail_electric rail_fast ship" speed="6.51" length="9.06" shape="855.30,757.61 855.64,755.14 855.12,753.16 853.72,751.67 851.46,750.65"/>
    </edge>
    <edge id=":2042693844_7" function="internal">
        <lane id=":2042693844_7_0" index="0" disallow="tram rail_urban rail rail_electric rail_fast ship" speed="13.89" length="14.42" shape="855.30,757.61 859.34,743.77"/>
    </edge>
    <edge id=":2042693844_8" function="internal">
        <lane id=":2042693844_8_0" index="0" disallow="tram rail_urban rail rail_electric rail_fast ship" speed="7.28" length="11.77" shape="855.30,757.61 856.70,754.00 858.49,751.66 860.65,750.60 863.18,750.81"/>
    </edge>
    <edge id=":2042693903_0" function="internal">
        <lane id=":2042693903_0_0" index="0" disallow="tram rail_urban rail rail_electric rail_fast ship" speed="6.62" length="9.23" shape="567.27,669.36 564.76,669.02 562.73,669.55 561.19,670.96 560.13,673.23"/>
    </edge>
    <edge id=":2042693903_1" function="internal">
        <lane id=":2042693903_1_0" index="0" disallow="tram rail_urban rail rail_electric rail_fast ship" speed="13.89" length="14.54" shape="567.27,669.36 553.29,665.37"/>
    </edge>
    <edge id=":2042693903_2" function="internal">
        <lane id=":2042693903_2_0" index="0" disallow="tram rail_urban rail rail_electric rail_fast ship" speed="7.95" length="5.98" shape="567.27,669.36 563.67,667.77 562.28,666.27"/>
    </edge>
    <edge id=":2042693903_3" function="internal">
        <lane id=":2042693903_3_0" index="0" disallow="tram rail_urban rail rail_electric rail_fast ship" speed="3.65" length="2.34" shape="567.27,669.36 566.33,668.26 566.16,667.39"/>
    </edge>
    <edge id=":2042693903_16" function="internal">
        <lane id=":2042693903_16_0" index="0" disallow="tram rail_urban rail rail_electric rail_fast ship" speed="7.95" length="8.32" shape="562.28,666.27 561.48,665.41 560.70,662.29 561.33,658.41"/>
    </edge>
    <edge id=":2042693903_17" function="internal">
        <lane id=":2042693903_17_0" index="0" disallow="tram rail_urban rail rail_electric rail_fast ship" speed="3.65" length="2.34" shape="566.16,667.39 566.77,666.72 568.14,666.28"/>
    </edge>
    <edge id=":2042693903_4" function="internal">
        <lane id=":2042693903_4_0" index="0" disallow="tram rail_urban rail rail_electric rail_fast ship" speed="6.44" length="9.03" shape="564.39,659.36 563.99,661.82 564.48,663.79 565.86,665.27 568.14,666.28"/>
    </edge>